#!/sbin/sh
#BY @apmods @artistaproducer t.me/apmods
TMPDIR=/dev/tmp
MOUNTPATH=/dev/magisk_img

# Default permissions
umask 022

# Initial cleanup
rm -rf $TMPDIR 2>/dev/null
mkdir -p $TMPDIR

# echo before loading util_functions
ui_print() { echo "$1"; }
#BY @apmods @artistaproducer t.me/apmods
require_new_magisk() {
    ui_print "***********************************"
    ui_print " âœ–ï¸ Please install the latest Magisk! "
    ui_print "***********************************"
    exit 1
}

imageless_magisk() {
    [ $MAGISK_VER_CODE -gt 18100 ]
    return $?
}
#BY @apmods @artistaproducer t.me/apmods
##########################################################################################
# Environment
##########################################################################################

OUTFD=$2
ZIPFILE=$3

mount /data 2>/dev/null
#BY @apmods @artistaproducer t.me/apmods
# Load utility functions
if [ -f /data/adb/magisk/util_functions.sh ]; then
    . /data/adb/magisk/util_functions.sh
    NVBASE=/data/adb
else
    require_new_magisk
fi

# Preperation for flashable zips
setup_flashable

# Mount partitions
mount_partitions

# Detect version and architecture
api_level_arch_detect
#BY @apmods @artistaproducer t.me/apmods
# Setup busybox and binaries
$BOOTMODE && boot_actions || recovery_actions

##########################################################################################
# Preparation
##########################################################################################

# Extract common files
unzip -oj "$ZIPFILE" module.prop install.sh uninstall.sh 'common/*' -d $TMPDIR >&2

[ ! -f $TMPDIR/install.sh ] && abort "! Unable to extract zip file!"
# Load install script
. $TMPDIR/install.sh

if imageless_magisk; then
    $BOOTMODE && MODDIRNAME=modules_update || MODDIRNAME=modules
    MODULEROOT=$NVBASE/$MODDIRNAME
else
    $BOOTMODE && IMGNAME=magisk_merge.img || IMGNAME=magisk.img
    IMG=$NVBASE/$IMGNAME
    request_zip_size_check "$ZIPFILE"
    mount_magisk_img
    MODULEROOT=$MOUNTPATH
fi
#BY @apmods @artistaproducer t.me/apmods
MODID=`grep_prop id $TMPDIR/module.prop`
MODPATH=$MODULEROOT/$MODID

print_modname



##########################################################################################
# Install
##########################################################################################

# Create mod paths
rm -rf $MODPATH 2>/dev/null
mkdir -p $MODPATH
SYSTEM=/system
SYSTEM_EXT=/system/system_ext
PRODUCT=/system/product
MY_HEY=/my_heytap
#BY @apmods @artistaproducer t.me/apmods
if [ -e $SYSTEM/app/miuisystem ] || [ -e $SYSTEM_EXT/app/miuisystem ] || [ -e $SYSTEM_EXT/priv-app/MiuiSystemUIPlugin ] || [ -e $PRODUCT/app/MIUISystemUIPlugin ] || [ -e $SYSTEM/app/miui]; then
    ui_print "";
    ui_print "  ðŸŒ€ MIUI Detectado âœ”ï¸";
    if [ -e $SYSTEM/priv-app/MiLauncherGlobal ] ; then
        ui_print "";
        ui_print "  ðŸš¨ MIUI Global Detectado";
        ui_print "";
        ui_print "     despues de reiniciar el dispositivo  ";
        ui_print "     si aun quedan algunas apps, desinstale normalmente!!";
        ui_print "";
    fi
    ui_print "  ðŸŒ€ Eliminando Apps ðŸ•—"
    # Handle replace folders miui
    for TARGET in $MIUIREPLACE; do
        mktouch $MODPATH$TARGET/.replace
    done
    ui_print "  ðŸŒ€ Apps eliminadas âœ”ï¸ "
else
    ui_print "";
    ui_print "  ðŸŒ€ AOSP Detectado âœ”ï¸";
    if [ -e $MY_HEY ]; then
        for TARGET in $OXIGEN; do
            mktouch $MODPATH$TARGET/.replace
        done
    fi
    ui_print "  ðŸŒ€ Eliminando Apps ðŸ•—"
    # Handle replace folders aosp
    for TARGET in $AOSP_REPLACE; do
        mktouch $MODPATH$TARGET/.replace
    done
    ui_print "  ðŸŒ€ Apps eliminadas âœ”ï¸ "
fi

#BY @apmods @artistaproducer t.me/apmods
# Remove placeholder
rm -f $MODPATH/system/placeholder 2>/dev/null

# Custom uninstaller
[ -f $TMPDIR/uninstall.sh ] && cp -af $TMPDIR/uninstall.sh $MODPATH/uninstall.sh

# Auto Mount
if imageless_magisk; then
    $SKIPMOUNT && touch $MODPATH/skip_mount
else
    $SKIPMOUNT || touch $MODPATH/auto_mount
fi

# prop files
$PROPFILE && cp -af $TMPDIR/system.prop $MODPATH/system.prop
#BY @apmods @artistaproducer t.me/apmods
# Module info
cp -af $TMPDIR/module.prop $MODPATH/module.prop
if $BOOTMODE; then
    # Update info for Magisk Manager
    if imageless_magisk; then
        mktouch $NVBASE/modules/$MODID/update
        cp -af $TMPDIR/module.prop $NVBASE/modules/$MODID/module.prop
    else
        mktouch /sbin/.magisk/img/$MODID/update
        cp -af $TMPDIR/module.prop /sbin/.magisk/img/$MODID/module.prop
    fi
fi

# post-fs-data mode scripts
$POSTFSDATA && cp -af $TMPDIR/post-fs-data.sh $MODPATH/post-fs-data.sh
#BY @apmods @artistaproducer t.me/apmods
# service mode scripts
$LATESTARTSERVICE && cp -af $TMPDIR/service.sh $MODPATH/service.sh
ui_print "  ðŸŒ€ Configurando permisos ðŸ•—"
set_permissions
ui_print "  ðŸŒ€ Permisos configurados âœ”ï¸ "
#BY @apmods @artistaproducer t.me/apmods
##########################################################################################
# Finalizing
##########################################################################################
#BY @apmods @artistaproducer t.me/apmods
cd /
imageless_magisk || unmount_magisk_img
$BOOTMODE || recovery_cleanup
rm -rf $TMPDIR $MOUNTPATH
#BY @apmods @artistaproducer t.me/apmods
ui_print "  ðŸŒ€ Realizado âœ”ï¸  "
sleep 2
nohup am start -a android.intent.action.VIEW -d https://paypal.me/apmodsgroup >/dev/null 2>&1 &
exit 0
