#!/sbin/sh
TMPDIR=/dev/tmp
MOUNTPATH=/dev/magisk_img

umask 022

rm -rf $TMPDIR 2>/dev/null
mkdir -p $TMPDIR

ui_print() { echo "$1"; }

require_new_magisk() {
    ui_print "***********************************"
    ui_print " âœ–ï¸ Please install the latest Magisk! "
    ui_print "***********************************"
    exit 1
}

imageless_magisk() {
    [ $MAGISK_VER_CODE -gt 18100 ]
    return $?
}

OUTFD=$2
ZIPFILE=$3

mount /data 2>/dev/null

if [ -f /data/adb/magisk/util_functions.sh ]; then
    . /data/adb/magisk/util_functions.sh
    NVBASE=/data/adb
else
    require_new_magisk
fi

setup_flashable

mount_partitions

api_level_arch_detect

$BOOTMODE && boot_actions || recovery_actions

unzip -oj "$ZIPFILE" module.prop install.sh uninstall.sh 'common/*' -d $TMPDIR >&2

[ ! -f $TMPDIR/install.sh ] && abort "! Unable to extract zip file!"

. $TMPDIR/install.sh

if imageless_magisk; then
    $BOOTMODE && MODDIRNAME=modules_update || MODDIRNAME=modules
    MODULEROOT=$NVBASE/$MODDIRNAME
else
    $BOOTMODE && IMGNAME=magisk_merge.img || IMGNAME=magisk.img
    IMG=$NVBASE/$IMGNAME
    request_zip_size_check "$ZIPFILE"
    mount_magisk_img
    MODULEROOT=$MOUNTPATH
fi

MODID=$(grep_prop id $TMPDIR/module.prop)
MODPATH=$MODULEROOT/$MODID

print_modname
sleep 2

logica

cd /
imageless_magisk || unmount_magisk_img
$BOOTMODE || recovery_cleanup
rm -rf $TMPDIR $MOUNTPATH

ui_print "  ðŸŒ€ Realizado âœ”ï¸  "
sleep 2
nohup am start -a android.intent.action.VIEW -d https://paypal.me/apmodsgroup >/dev/null 2>&1 &
exit 0
